11
Geom from Isomer_0.gjf
C                 -0.80482100    0.56270500    0.24974300
H                 -0.81439000    0.65285200    1.35625900
H                 -1.41800200    1.38460600   -0.15194500
C                  0.63191500    0.67004500   -0.25260800
H                  1.10569500    1.59134600    0.13358600
H                  0.61967000    0.73585400   -1.35214500
N                  1.32396700   -0.56872500    0.11299100
H                  2.18624300   -0.66244400   -0.42087700
H                  1.60978400   -0.52758800    1.09223700
O                 -1.36491200   -0.66520900   -0.16328200
H                 -0.60003400   -1.26838200   -0.12460400